LAMMPS (16 Mar 2018)
Processor partition = 1
# dyncamics Clausius-Clapeyron integration

variable Tcoex    equal 0.77
variable Pcoex    equal 1.0
variable phase    world solid liquid
variable dt       equal 0.004
variable Tdamp    equal 100*0.004
variable Pdamp    equal 1000*0.004
variable lambda   equal 1.0
variable Pi       equal 1.0
variable Pf       equal 174
variable seed     equal 69
variable t_eq     equal 5000
variable t_sc     equal 5000
variable epsilon  equal 1.0
variable sigma    equal 1.0
variable rc       equal 3.5*1

units             lj
boundary          p p p
atom_style        atomic

read_data         liquid/phase.lammps
  orthogonal box = (0 0 0) to (8.32159 8.32159 8.32159)
  reading atoms ...
  500 atoms
  reading velocities ...
  500 velocities

pair_style        lj/cut 3.5
pair_coeff        * * 1 1
pair_modify       shift no tail yes

neighbor          1.0 bin
neigh_modify delay 0

timestep          0.004

reset_timestep    0

variable rnd equal round(random(0,999,69))
fix f1 all nph iso 1 1 4
fix f2 all langevin 0.77 0.77 0.4 361 zero yes
compute           c1 all temp/com
fix_modify        f1 temp c1
fix_modify        f2 temp c1
run               5000
  update every 1 steps, delay 0 steps, check yes
Step Temp E_pair E_mol TotEng Press Volume
0   0.80468855   -6.1279452            0   -4.9233264    1.0167281    576.26062
Loop time of 9.38895 on 1 procs for 5000 steps with 500 atoms

fix f3 all adapt/dcci 1 pair lj/cut fscale * *
thermo_style custom step temp ke pe etotal press vol f_f3
thermo            100
thermo_modify flush yes norm no
dcci              0.77 1 1 f3 f1 5000 press 1 174
Step Temp KinEng PotEng TotEng Press Volume f_f3
5000   0.76193978    570.31192   -3131.4606   -2561.1487    1.1713598    565.46338            1
Averages over the last 26 of 51 rows, steps 7500 to 10000:
Temp KinEng PotEng TotEng Press Volume f_f3
0.760173 568.99 3825.37 4394.36 14.2582 364.783 0.112256
Loop time of 18.9867 on 1 procs for 5000 steps with 500 atoms
